<?xml version="1.0" encoding="UTF-8"?>

<!-- generated on 2026-04-27T13:19:53.256956+05:30 by Eclipse SUMO netconvert 1.26.0
<netconvertConfiguration xmlns:xsi="http://www.w3.org/2001/XMLSchema-instance" xsi:noNamespaceSchemaLocation="http://sumo.dlr.de/xsd/netconvertConfiguration.xsd">

    <input>
        <node-files value="C:\v2v_sumo_project\map\intersection.nod.xml"/>
        <edge-files value="C:\v2v_sumo_project\map\intersection.edg.xml"/>
        <connection-files value="C:\v2v_sumo_project\map\intersection.con.xml"/>
    </input>

    <output>
        <output-file value="C:\v2v_sumo_project\map\intersection.net.xml"/>
    </output>

    <processing>
        <geometry.remove value="true"/>
    </processing>

    <tls_building>
        <tls.default-type value="static"/>
    </tls_building>

    <junctions>
        <no-turnarounds value="true"/>
        <junctions.corner-detail value="5"/>
    </junctions>

    <pedestrian>
        <sidewalks.guess value="true"/>
        <crossings.guess value="true"/>
    </pedestrian>

</netconvertConfiguration>
-->

<net version="1.20" junctionCornerDetail="5" walkingareas="true" limitTurnSpeed="5.50" xmlns:xsi="http://www.w3.org/2001/XMLSchema-instance" xsi:noNamespaceSchemaLocation="http://sumo.dlr.de/xsd/net_file.xsd">

    <location netOffset="600.00,300.00" convBoundary="0.00,0.00,1200.00,600.00" origBoundary="-600.00,-300.00,600.00,300.00" projParameter="!"/>

    <edge id=":east_end_w0" function="walkingarea">
        <lane id=":east_end_w0_0" index="0" allow="pedestrian" speed="2.78" length="14.80" width="2.00" shape="1200.00,306.40 1200.00,308.40 1200.00,291.60 1200.00,293.60"/>
    </edge>
    <edge id=":j_c_0" function="internal">
        <lane id=":j_c_0_0" index="0" disallow="pedestrian" speed="6.51" length="4.75" shape="595.20,310.40 594.85,307.95 593.80,306.20 593.60,306.08"/>
    </edge>
    <edge id=":j_c_1" function="internal">
        <lane id=":j_c_1_0" index="0" disallow="pedestrian" speed="13.89" length="20.80" shape="595.20,310.40 595.20,289.60"/>
    </edge>
    <edge id=":j_c_2" function="internal">
        <lane id=":j_c_2_0" index="0" disallow="pedestrian" speed="10.10" length="5.43" shape="595.20,310.40 596.53,305.14"/>
    </edge>
    <edge id=":j_c_3" function="internal">
        <lane id=":j_c_3_0" index="0" disallow="pedestrian" speed="8.00" length="4.07" shape="598.40,310.40 597.85,306.55 597.76,306.40"/>
    </edge>
    <edge id=":j_c_4" function="internal">
        <lane id=":j_c_4_0" index="0" disallow="pedestrian" speed="13.89" length="20.80" shape="598.40,310.40 598.40,289.60"/>
    </edge>
    <edge id=":j_c_5" function="internal">
        <lane id=":j_c_5_0" index="0" disallow="pedestrian" speed="9.02" length="2.96" shape="598.40,310.40 599.13,307.53"/>
    </edge>
    <edge id=":j_c_24" function="internal">
        <lane id=":j_c_24_0" index="0" disallow="pedestrian" speed="6.51" length="4.28" shape="593.60,306.08 592.05,305.15 589.60,304.80"/>
    </edge>
    <edge id=":j_c_25" function="internal">
        <lane id=":j_c_25_0" index="0" disallow="pedestrian" speed="10.10" length="17.79" shape="596.53,305.14 596.57,305.00 600.11,300.11 605.00,296.57 610.40,295.20"/>
    </edge>
    <edge id=":j_c_26" function="internal">
        <lane id=":j_c_26_0" index="0" disallow="pedestrian" speed="8.00" length="10.13" shape="597.76,306.40 596.20,303.80 593.45,302.15 589.60,301.60"/>
    </edge>
    <edge id=":j_c_27" function="internal">
        <lane id=":j_c_27_0" index="0" disallow="pedestrian" speed="9.02" length="15.37" shape="599.13,307.53 599.48,306.14 602.28,302.28 606.14,299.48 610.40,298.40"/>
    </edge>
    <edge id=":j_c_6" function="internal">
        <lane id=":j_c_6_0" index="0" disallow="pedestrian" speed="6.51" length="4.75" shape="610.40,304.80 607.95,305.15 606.20,306.20 606.08,306.40"/>
    </edge>
    <edge id=":j_c_7" function="internal">
        <lane id=":j_c_7_0" index="0" disallow="pedestrian" speed="13.89" length="20.80" shape="610.40,304.80 589.60,304.80"/>
    </edge>
    <edge id=":j_c_8" function="internal">
        <lane id=":j_c_8_0" index="0" disallow="pedestrian" speed="10.10" length="9.83" shape="610.40,304.80 605.00,303.43 601.55,300.93"/>
    </edge>
    <edge id=":j_c_9" function="internal">
        <lane id=":j_c_9_0" index="0" disallow="pedestrian" speed="8.00" length="4.07" shape="610.40,301.60 606.55,302.15 606.40,302.24"/>
    </edge>
    <edge id=":j_c_10" function="internal">
        <lane id=":j_c_10_0" index="0" disallow="pedestrian" speed="13.89" length="20.80" shape="610.40,301.60 589.60,301.60"/>
    </edge>
    <edge id=":j_c_11" function="internal">
        <lane id=":j_c_11_0" index="0" disallow="pedestrian" speed="9.02" length="2.96" shape="610.40,301.60 607.53,300.87"/>
    </edge>
    <edge id=":j_c_28" function="internal">
        <lane id=":j_c_28_0" index="0" disallow="pedestrian" speed="6.51" length="4.28" shape="606.08,306.40 605.15,307.95 604.80,310.40"/>
    </edge>
    <edge id=":j_c_29" function="internal">
        <lane id=":j_c_29_0" index="0" disallow="pedestrian" speed="10.10" length="13.39" shape="601.55,300.93 600.11,299.89 596.57,295.00 595.20,289.60"/>
    </edge>
    <edge id=":j_c_30" function="internal">
        <lane id=":j_c_30_0" index="0" disallow="pedestrian" speed="8.00" length="10.13" shape="606.40,302.24 603.80,303.80 602.15,306.55 601.60,310.40"/>
    </edge>
    <edge id=":j_c_31" function="internal">
        <lane id=":j_c_31_0" index="0" disallow="pedestrian" speed="9.02" length="15.37" shape="607.53,300.87 606.14,300.52 602.28,297.72 599.48,293.86 598.40,289.60"/>
    </edge>
    <edge id=":j_c_12" function="internal">
        <lane id=":j_c_12_0" index="0" disallow="pedestrian" speed="6.51" length="4.75" shape="604.80,289.60 605.15,292.05 606.20,293.80 606.40,293.92"/>
    </edge>
    <edge id=":j_c_13" function="internal">
        <lane id=":j_c_13_0" index="0" disallow="pedestrian" speed="13.89" length="20.80" shape="604.80,289.60 604.80,310.40"/>
    </edge>
    <edge id=":j_c_14" function="internal">
        <lane id=":j_c_14_0" index="0" disallow="pedestrian" speed="10.10" length="5.43" shape="604.80,289.60 603.47,294.86"/>
    </edge>
    <edge id=":j_c_15" function="internal">
        <lane id=":j_c_15_0" index="0" disallow="pedestrian" speed="8.00" length="4.07" shape="601.60,289.60 602.15,293.45 602.24,293.60"/>
    </edge>
    <edge id=":j_c_16" function="internal">
        <lane id=":j_c_16_0" index="0" disallow="pedestrian" speed="13.89" length="20.80" shape="601.60,289.60 601.60,310.40"/>
    </edge>
    <edge id=":j_c_17" function="internal">
        <lane id=":j_c_17_0" index="0" disallow="pedestrian" speed="9.02" length="2.96" shape="601.60,289.60 600.87,292.47"/>
    </edge>
    <edge id=":j_c_32" function="internal">
        <lane id=":j_c_32_0" index="0" disallow="pedestrian" speed="6.51" length="4.28" shape="606.40,293.92 607.95,294.85 610.40,295.20"/>
    </edge>
    <edge id=":j_c_33" function="internal">
        <lane id=":j_c_33_0" index="0" disallow="pedestrian" speed="10.10" length="17.79" shape="603.47,294.86 603.43,295.00 599.89,299.89 595.00,303.43 589.60,304.80"/>
    </edge>
    <edge id=":j_c_34" function="internal">
        <lane id=":j_c_34_0" index="0" disallow="pedestrian" speed="8.00" length="10.13" shape="602.24,293.60 603.80,296.20 606.55,297.85 610.40,298.40"/>
    </edge>
    <edge id=":j_c_35" function="internal">
        <lane id=":j_c_35_0" index="0" disallow="pedestrian" speed="9.02" length="15.37" shape="600.87,292.47 600.52,293.86 597.72,297.72 593.86,300.52 589.60,301.60"/>
    </edge>
    <edge id=":j_c_18" function="internal">
        <lane id=":j_c_18_0" index="0" disallow="pedestrian" speed="6.51" length="4.75" shape="589.60,295.20 592.05,294.85 593.80,293.80 593.92,293.60"/>
    </edge>
    <edge id=":j_c_19" function="internal">
        <lane id=":j_c_19_0" index="0" disallow="pedestrian" speed="13.89" length="20.80" shape="589.60,295.20 610.40,295.20"/>
    </edge>
    <edge id=":j_c_20" function="internal">
        <lane id=":j_c_20_0" index="0" disallow="pedestrian" speed="10.10" length="9.83" shape="589.60,295.20 595.00,296.57 598.45,299.07"/>
    </edge>
    <edge id=":j_c_21" function="internal">
        <lane id=":j_c_21_0" index="0" disallow="pedestrian" speed="8.00" length="4.07" shape="589.60,298.40 593.45,297.85 593.60,297.76"/>
    </edge>
    <edge id=":j_c_22" function="internal">
        <lane id=":j_c_22_0" index="0" disallow="pedestrian" speed="13.89" length="20.80" shape="589.60,298.40 610.40,298.40"/>
    </edge>
    <edge id=":j_c_23" function="internal">
        <lane id=":j_c_23_0" index="0" disallow="pedestrian" speed="9.02" length="2.96" shape="589.60,298.40 592.47,299.13"/>
    </edge>
    <edge id=":j_c_36" function="internal">
        <lane id=":j_c_36_0" index="0" disallow="pedestrian" speed="6.51" length="4.28" shape="593.92,293.60 594.85,292.05 595.20,289.60"/>
    </edge>
    <edge id=":j_c_37" function="internal">
        <lane id=":j_c_37_0" index="0" disallow="pedestrian" speed="10.10" length="13.39" shape="598.45,299.07 599.89,300.11 603.43,305.00 604.80,310.40"/>
    </edge>
    <edge id=":j_c_38" function="internal">
        <lane id=":j_c_38_0" index="0" disallow="pedestrian" speed="8.00" length="10.13" shape="593.60,297.76 596.20,296.20 597.85,293.45 598.40,289.60"/>
    </edge>
    <edge id=":j_c_39" function="internal">
        <lane id=":j_c_39_0" index="0" disallow="pedestrian" speed="9.02" length="15.37" shape="592.47,299.13 593.86,299.48 597.72,302.28 600.52,306.14 601.60,310.40"/>
    </edge>
    <edge id=":j_c_c0" function="crossing" crossingEdges="Nc_out Nc_in">
        <lane id=":j_c_c0_0" index="0" allow="pedestrian" speed="2.78" length="12.80" width="4.00" shape="606.40,308.40 593.60,308.40" outlineShape="606.40,310.40 593.60,310.40 589.60,306.40 589.60,308.40 591.60,310.40 593.60,310.40 589.60,306.40 610.40,306.40 609.18,306.51 608.18,306.84 607.40,307.40 606.84,308.18 606.51,309.18"/>
    </edge>
    <edge id=":j_c_c1" function="crossing" crossingEdges="W3_in W3_out">
        <lane id=":j_c_c1_0" index="0" allow="pedestrian" speed="2.78" length="12.80" width="4.00" shape="608.40,293.60 608.40,306.40" outlineShape="610.40,293.60 610.40,306.40 606.40,310.40 608.40,310.40 610.40,308.40 610.40,306.40 606.40,310.40 606.40,289.60 606.51,290.82 606.84,291.82 607.40,292.60 608.18,293.16 609.18,293.49"/>
    </edge>
    <edge id=":j_c_c2" function="crossing" crossingEdges="Sc_out Sc_in">
        <lane id=":j_c_c2_0" index="0" allow="pedestrian" speed="2.78" length="12.80" width="4.00" shape="593.60,291.60 606.40,291.60" outlineShape="593.60,289.60 606.40,289.60 610.40,293.60 610.40,291.60 608.40,289.60 606.40,289.60 610.40,293.60 589.60,293.60 590.82,293.49 591.82,293.16 592.60,292.60 593.16,291.82 593.49,290.82"/>
    </edge>
    <edge id=":j_c_c3" function="crossing" crossingEdges="W2_out W2_in">
        <lane id=":j_c_c3_0" index="0" allow="pedestrian" speed="2.78" length="12.80" width="4.00" shape="591.60,306.40 591.60,293.60" outlineShape="589.60,306.40 589.60,293.60 593.60,289.60 591.60,289.60 589.60,291.60 589.60,293.60 593.60,289.60 593.60,310.40 593.49,309.18 593.16,308.18 592.60,307.40 591.82,306.84 590.82,306.51"/>
    </edge>
    <edge id=":j_c_w0" function="walkingarea">
        <lane id=":j_c_w0_0" index="0" allow="pedestrian" speed="2.78" length="3.30" width="4.00" shape="589.60,306.40 589.60,308.40 591.60,310.40 593.60,310.40 593.49,309.18 593.16,308.18 592.60,307.40 591.82,306.84 590.82,306.51"/>
    </edge>
    <edge id=":j_c_w1" function="walkingarea">
        <lane id=":j_c_w1_0" index="0" allow="pedestrian" speed="2.78" length="3.30" width="4.00" shape="606.40,310.40 608.40,310.40 610.40,308.40 610.40,306.40 609.18,306.51 608.18,306.84 607.40,307.40 606.84,308.18 606.51,309.18"/>
    </edge>
    <edge id=":j_c_w2" function="walkingarea">
        <lane id=":j_c_w2_0" index="0" allow="pedestrian" speed="2.78" length="3.30" width="4.00" shape="610.40,293.60 610.40,291.60 608.40,289.60 606.40,289.60 606.51,290.82 606.84,291.82 607.40,292.60 608.18,293.16 609.18,293.49"/>
    </edge>
    <edge id=":j_c_w3" function="walkingarea">
        <lane id=":j_c_w3_0" index="0" allow="pedestrian" speed="2.78" length="3.30" width="4.00" shape="593.60,289.60 591.60,289.60 589.60,291.60 589.60,293.60 590.82,293.49 591.82,293.16 592.60,292.60 593.16,291.82 593.49,290.82"/>
    </edge>
    <edge id=":j_e_0" function="internal">
        <lane id=":j_e_0_0" index="0" disallow="pedestrian" speed="6.51" length="4.75" shape="895.20,310.40 894.85,307.95 893.80,306.20 893.60,306.08"/>
    </edge>
    <edge id=":j_e_1" function="internal">
        <lane id=":j_e_1_0" index="0" disallow="pedestrian" speed="13.89" length="20.80" shape="895.20,310.40 895.20,289.60"/>
    </edge>
    <edge id=":j_e_2" function="internal">
        <lane id=":j_e_2_0" index="0" disallow="pedestrian" speed="10.10" length="5.43" shape="895.20,310.40 896.53,305.14"/>
    </edge>
    <edge id=":j_e_3" function="internal">
        <lane id=":j_e_3_0" index="0" disallow="pedestrian" speed="8.00" length="4.07" shape="898.40,310.40 897.85,306.55 897.76,306.40"/>
    </edge>
    <edge id=":j_e_4" function="internal">
        <lane id=":j_e_4_0" index="0" disallow="pedestrian" speed="13.89" length="20.80" shape="898.40,310.40 898.40,289.60"/>
    </edge>
    <edge id=":j_e_5" function="internal">
        <lane id=":j_e_5_0" index="0" disallow="pedestrian" speed="9.02" length="2.96" shape="898.40,310.40 899.13,307.53"/>
    </edge>
    <edge id=":j_e_24" function="internal">
        <lane id=":j_e_24_0" index="0" disallow="pedestrian" speed="6.51" length="4.28" shape="893.60,306.08 892.05,305.15 889.60,304.80"/>
    </edge>
    <edge id=":j_e_25" function="internal">
        <lane id=":j_e_25_0" index="0" disallow="pedestrian" speed="10.10" length="17.79" shape="896.53,305.14 896.57,305.00 900.11,300.11 905.00,296.57 910.40,295.20"/>
    </edge>
    <edge id=":j_e_26" function="internal">
        <lane id=":j_e_26_0" index="0" disallow="pedestrian" speed="8.00" length="10.13" shape="897.76,306.40 896.20,303.80 893.45,302.15 889.60,301.60"/>
    </edge>
    <edge id=":j_e_27" function="internal">
        <lane id=":j_e_27_0" index="0" disallow="pedestrian" speed="9.02" length="15.37" shape="899.13,307.53 899.48,306.14 902.28,302.28 906.14,299.48 910.40,298.40"/>
    </edge>
    <edge id=":j_e_6" function="internal">
        <lane id=":j_e_6_0" index="0" disallow="pedestrian" speed="6.51" length="4.75" shape="910.40,304.80 907.95,305.15 906.20,306.20 906.08,306.40"/>
    </edge>
    <edge id=":j_e_7" function="internal">
        <lane id=":j_e_7_0" index="0" disallow="pedestrian" speed="13.89" length="20.80" shape="910.40,304.80 889.60,304.80"/>
    </edge>
    <edge id=":j_e_8" function="internal">
        <lane id=":j_e_8_0" index="0" disallow="pedestrian" speed="10.10" length="9.83" shape="910.40,304.80 905.00,303.43 901.55,300.93"/>
    </edge>
    <edge id=":j_e_9" function="internal">
        <lane id=":j_e_9_0" index="0" disallow="pedestrian" speed="8.00" length="4.07" shape="910.40,301.60 906.55,302.15 906.40,302.24"/>
    </edge>
    <edge id=":j_e_10" function="internal">
        <lane id=":j_e_10_0" index="0" disallow="pedestrian" speed="13.89" length="20.80" shape="910.40,301.60 889.60,301.60"/>
    </edge>
    <edge id=":j_e_11" function="internal">
        <lane id=":j_e_11_0" index="0" disallow="pedestrian" speed="9.02" length="2.96" shape="910.40,301.60 907.53,300.87"/>
    </edge>
    <edge id=":j_e_28" function="internal">
        <lane id=":j_e_28_0" index="0" disallow="pedestrian" speed="6.51" length="4.28" shape="906.08,306.40 905.15,307.95 904.80,310.40"/>
    </edge>
    <edge id=":j_e_29" function="internal">
        <lane id=":j_e_29_0" index="0" disallow="pedestrian" speed="10.10" length="13.39" shape="901.55,300.93 900.11,299.89 896.57,295.00 895.20,289.60"/>
    </edge>
    <edge id=":j_e_30" function="internal">
        <lane id=":j_e_30_0" index="0" disallow="pedestrian" speed="8.00" length="10.13" shape="906.40,302.24 903.80,303.80 902.15,306.55 901.60,310.40"/>
    </edge>
    <edge id=":j_e_31" function="internal">
        <lane id=":j_e_31_0" index="0" disallow="pedestrian" speed="9.02" length="15.37" shape="907.53,300.87 906.14,300.52 902.28,297.72 899.48,293.86 898.40,289.60"/>
    </edge>
    <edge id=":j_e_12" function="internal">
        <lane id=":j_e_12_0" index="0" disallow="pedestrian" speed="6.51" length="4.75" shape="904.80,289.60 905.15,292.05 906.20,293.80 906.40,293.92"/>
    </edge>
    <edge id=":j_e_13" function="internal">
        <lane id=":j_e_13_0" index="0" disallow="pedestrian" speed="13.89" length="20.80" shape="904.80,289.60 904.80,310.40"/>
    </edge>
    <edge id=":j_e_14" function="internal">
        <lane id=":j_e_14_0" index="0" disallow="pedestrian" speed="10.10" length="5.43" shape="904.80,289.60 903.47,294.86"/>
    </edge>
    <edge id=":j_e_15" function="internal">
        <lane id=":j_e_15_0" index="0" disallow="pedestrian" speed="8.00" length="4.07" shape="901.60,289.60 902.15,293.45 902.24,293.60"/>
    </edge>
    <edge id=":j_e_16" function="internal">
        <lane id=":j_e_16_0" index="0" disallow="pedestrian" speed="13.89" length="20.80" shape="901.60,289.60 901.60,310.40"/>
    </edge>
    <edge id=":j_e_17" function="internal">
        <lane id=":j_e_17_0" index="0" disallow="pedestrian" speed="9.02" length="2.96" shape="901.60,289.60 900.87,292.47"/>
    </edge>
    <edge id=":j_e_32" function="internal">
        <lane id=":j_e_32_0" index="0" disallow="pedestrian" speed="6.51" length="4.28" shape="906.40,293.92 907.95,294.85 910.40,295.20"/>
    </edge>
    <edge id=":j_e_33" function="internal">
        <lane id=":j_e_33_0" index="0" disallow="pedestrian" speed="10.10" length="17.79" shape="903.47,294.86 903.43,295.00 899.89,299.89 895.00,303.43 889.60,304.80"/>
    </edge>
    <edge id=":j_e_34" function="internal">
        <lane id=":j_e_34_0" index="0" disallow="pedestrian" speed="8.00" length="10.13" shape="902.24,293.60 903.80,296.20 906.55,297.85 910.40,298.40"/>
    </edge>
    <edge id=":j_e_35" function="internal">
        <lane id=":j_e_35_0" index="0" disallow="pedestrian" speed="9.02" length="15.37" shape="900.87,292.47 900.52,293.86 897.72,297.72 893.86,300.52 889.60,301.60"/>
    </edge>
    <edge id=":j_e_18" function="internal">
        <lane id=":j_e_18_0" index="0" disallow="pedestrian" speed="6.51" length="4.75" shape="889.60,295.20 892.05,294.85 893.80,293.80 893.92,293.60"/>
    </edge>
    <edge id=":j_e_19" function="internal">
        <lane id=":j_e_19_0" index="0" disallow="pedestrian" speed="13.89" length="20.80" shape="889.60,295.20 910.40,295.20"/>
    </edge>
    <edge id=":j_e_20" function="internal">
        <lane id=":j_e_20_0" index="0" disallow="pedestrian" speed="10.10" length="9.83" shape="889.60,295.20 895.00,296.57 898.45,299.07"/>
    </edge>
    <edge id=":j_e_21" function="internal">
        <lane id=":j_e_21_0" index="0" disallow="pedestrian" speed="8.00" length="4.07" shape="889.60,298.40 893.45,297.85 893.60,297.76"/>
    </edge>
    <edge id=":j_e_22" function="internal">
        <lane id=":j_e_22_0" index="0" disallow="pedestrian" speed="13.89" length="20.80" shape="889.60,298.40 910.40,298.40"/>
    </edge>
    <edge id=":j_e_23" function="internal">
        <lane id=":j_e_23_0" index="0" disallow="pedestrian" speed="9.02" length="2.96" shape="889.60,298.40 892.47,299.13"/>
    </edge>
    <edge id=":j_e_36" function="internal">
        <lane id=":j_e_36_0" index="0" disallow="pedestrian" speed="6.51" length="4.28" shape="893.92,293.60 894.85,292.05 895.20,289.60"/>
    </edge>
    <edge id=":j_e_37" function="internal">
        <lane id=":j_e_37_0" index="0" disallow="pedestrian" speed="10.10" length="13.39" shape="898.45,299.07 899.89,300.11 903.43,305.00 904.80,310.40"/>
    </edge>
    <edge id=":j_e_38" function="internal">
        <lane id=":j_e_38_0" index="0" disallow="pedestrian" speed="8.00" length="10.13" shape="893.60,297.76 896.20,296.20 897.85,293.45 898.40,289.60"/>
    </edge>
    <edge id=":j_e_39" function="internal">
        <lane id=":j_e_39_0" index="0" disallow="pedestrian" speed="9.02" length="15.37" shape="892.47,299.13 893.86,299.48 897.72,302.28 900.52,306.14 901.60,310.40"/>
    </edge>
    <edge id=":j_e_c0" function="crossing" crossingEdges="Ne_out Ne_in">
        <lane id=":j_e_c0_0" index="0" allow="pedestrian" speed="2.78" length="12.80" width="4.00" shape="906.40,308.40 893.60,308.40" outlineShape="906.40,310.40 893.60,310.40 889.60,306.40 889.60,308.40 891.60,310.40 893.60,310.40 889.60,306.40 910.40,306.40 909.18,306.51 908.18,306.84 907.40,307.40 906.84,308.18 906.51,309.18"/>
    </edge>
    <edge id=":j_e_c1" function="crossing" crossingEdges="W4_in W4_out">
        <lane id=":j_e_c1_0" index="0" allow="pedestrian" speed="2.78" length="12.80" width="4.00" shape="908.40,293.60 908.40,306.40" outlineShape="910.40,293.60 910.40,306.40 906.40,310.40 908.40,310.40 910.40,308.40 910.40,306.40 906.40,310.40 906.40,289.60 906.51,290.82 906.84,291.82 907.40,292.60 908.18,293.16 909.18,293.49"/>
    </edge>
    <edge id=":j_e_c2" function="crossing" crossingEdges="Se_out Se_in">
        <lane id=":j_e_c2_0" index="0" allow="pedestrian" speed="2.78" length="12.80" width="4.00" shape="893.60,291.60 906.40,291.60" outlineShape="893.60,289.60 906.40,289.60 910.40,293.60 910.40,291.60 908.40,289.60 906.40,289.60 910.40,293.60 889.60,293.60 890.82,293.49 891.82,293.16 892.60,292.60 893.16,291.82 893.49,290.82"/>
    </edge>
    <edge id=":j_e_c3" function="crossing" crossingEdges="W3_out W3_in">
        <lane id=":j_e_c3_0" index="0" allow="pedestrian" speed="2.78" length="12.80" width="4.00" shape="891.60,306.40 891.60,293.60" outlineShape="889.60,306.40 889.60,293.60 893.60,289.60 891.60,289.60 889.60,291.60 889.60,293.60 893.60,289.60 893.60,310.40 893.49,309.18 893.16,308.18 892.60,307.40 891.82,306.84 890.82,306.51"/>
    </edge>
    <edge id=":j_e_w0" function="walkingarea">
        <lane id=":j_e_w0_0" index="0" allow="pedestrian" speed="2.78" length="3.30" width="4.00" shape="889.60,306.40 889.60,308.40 891.60,310.40 893.60,310.40 893.49,309.18 893.16,308.18 892.60,307.40 891.82,306.84 890.82,306.51"/>
    </edge>
    <edge id=":j_e_w1" function="walkingarea">
        <lane id=":j_e_w1_0" index="0" allow="pedestrian" speed="2.78" length="3.30" width="4.00" shape="906.40,310.40 908.40,310.40 910.40,308.40 910.40,306.40 909.18,306.51 908.18,306.84 907.40,307.40 906.84,308.18 906.51,309.18"/>
    </edge>
    <edge id=":j_e_w2" function="walkingarea">
        <lane id=":j_e_w2_0" index="0" allow="pedestrian" speed="2.78" length="3.30" width="4.00" shape="910.40,293.60 910.40,291.60 908.40,289.60 906.40,289.60 906.51,290.82 906.84,291.82 907.40,292.60 908.18,293.16 909.18,293.49"/>
    </edge>
    <edge id=":j_e_w3" function="walkingarea">
        <lane id=":j_e_w3_0" index="0" allow="pedestrian" speed="2.78" length="3.30" width="4.00" shape="893.60,289.60 891.60,289.60 889.60,291.60 889.60,293.60 890.82,293.49 891.82,293.16 892.60,292.60 893.16,291.82 893.49,290.82"/>
    </edge>
    <edge id=":j_w_0" function="internal">
        <lane id=":j_w_0_0" index="0" disallow="pedestrian" speed="6.51" length="4.75" shape="295.20,310.40 294.85,307.95 293.80,306.20 293.60,306.08"/>
    </edge>
    <edge id=":j_w_1" function="internal">
        <lane id=":j_w_1_0" index="0" disallow="pedestrian" speed="13.89" length="20.80" shape="295.20,310.40 295.20,289.60"/>
    </edge>
    <edge id=":j_w_2" function="internal">
        <lane id=":j_w_2_0" index="0" disallow="pedestrian" speed="10.10" length="5.43" shape="295.20,310.40 296.53,305.14"/>
    </edge>
    <edge id=":j_w_3" function="internal">
        <lane id=":j_w_3_0" index="0" disallow="pedestrian" speed="8.00" length="4.07" shape="298.40,310.40 297.85,306.55 297.76,306.40"/>
    </edge>
    <edge id=":j_w_4" function="internal">
        <lane id=":j_w_4_0" index="0" disallow="pedestrian" speed="13.89" length="20.80" shape="298.40,310.40 298.40,289.60"/>
    </edge>
    <edge id=":j_w_5" function="internal">
        <lane id=":j_w_5_0" index="0" disallow="pedestrian" speed="9.02" length="2.96" shape="298.40,310.40 299.13,307.53"/>
    </edge>
    <edge id=":j_w_24" function="internal">
        <lane id=":j_w_24_0" index="0" disallow="pedestrian" speed="6.51" length="4.28" shape="293.60,306.08 292.05,305.15 289.60,304.80"/>
    </edge>
    <edge id=":j_w_25" function="internal">
        <lane id=":j_w_25_0" index="0" disallow="pedestrian" speed="10.10" length="17.79" shape="296.53,305.14 296.57,305.00 300.11,300.11 305.00,296.57 310.40,295.20"/>
    </edge>
    <edge id=":j_w_26" function="internal">
        <lane id=":j_w_26_0" index="0" disallow="pedestrian" speed="8.00" length="10.13" shape="297.76,306.40 296.20,303.80 293.45,302.15 289.60,301.60"/>
    </edge>
    <edge id=":j_w_27" function="internal">
        <lane id=":j_w_27_0" index="0" disallow="pedestrian" speed="9.02" length="15.37" shape="299.13,307.53 299.48,306.14 302.28,302.28 306.14,299.48 310.40,298.40"/>
    </edge>
    <edge id=":j_w_6" function="internal">
        <lane id=":j_w_6_0" index="0" disallow="pedestrian" speed="6.51" length="4.75" shape="310.40,304.80 307.95,305.15 306.20,306.20 306.08,306.40"/>
    </edge>
    <edge id=":j_w_7" function="internal">
        <lane id=":j_w_7_0" index="0" disallow="pedestrian" speed="13.89" length="20.80" shape="310.40,304.80 289.60,304.80"/>
    </edge>
    <edge id=":j_w_8" function="internal">
        <lane id=":j_w_8_0" index="0" disallow="pedestrian" speed="10.10" length="9.83" shape="310.40,304.80 305.00,303.43 301.55,300.93"/>
    </edge>
    <edge id=":j_w_9" function="internal">
        <lane id=":j_w_9_0" index="0" disallow="pedestrian" speed="8.00" length="4.07" shape="310.40,301.60 306.55,302.15 306.40,302.24"/>
    </edge>
    <edge id=":j_w_10" function="internal">
        <lane id=":j_w_10_0" index="0" disallow="pedestrian" speed="13.89" length="20.80" shape="310.40,301.60 289.60,301.60"/>
    </edge>
    <edge id=":j_w_11" function="internal">
        <lane id=":j_w_11_0" index="0" disallow="pedestrian" speed="9.02" length="2.96" shape="310.40,301.60 307.53,300.87"/>
    </edge>
    <edge id=":j_w_28" function="internal">
        <lane id=":j_w_28_0" index="0" disallow="pedestrian" speed="6.51" length="4.28" shape="306.08,306.40 305.15,307.95 304.80,310.40"/>
    </edge>
    <edge id=":j_w_29" function="internal">
        <lane id=":j_w_29_0" index="0" disallow="pedestrian" speed="10.10" length="13.39" shape="301.55,300.93 300.11,299.89 296.57,295.00 295.20,289.60"/>
    </edge>
    <edge id=":j_w_30" function="internal">
        <lane id=":j_w_30_0" index="0" disallow="pedestrian" speed="8.00" length="10.13" shape="306.40,302.24 303.80,303.80 302.15,306.55 301.60,310.40"/>
    </edge>
    <edge id=":j_w_31" function="internal">
        <lane id=":j_w_31_0" index="0" disallow="pedestrian" speed="9.02" length="15.37" shape="307.53,300.87 306.14,300.52 302.28,297.72 299.48,293.86 298.40,289.60"/>
    </edge>
    <edge id=":j_w_12" function="internal">
        <lane id=":j_w_12_0" index="0" disallow="pedestrian" speed="6.51" length="4.75" shape="304.80,289.60 305.15,292.05 306.20,293.80 306.40,293.92"/>
    </edge>
    <edge id=":j_w_13" function="internal">
        <lane id=":j_w_13_0" index="0" disallow="pedestrian" speed="13.89" length="20.80" shape="304.80,289.60 304.80,310.40"/>
    </edge>
    <edge id=":j_w_14" function="internal">
        <lane id=":j_w_14_0" index="0" disallow="pedestrian" speed="10.10" length="5.43" shape="304.80,289.60 303.47,294.86"/>
    </edge>
    <edge id=":j_w_15" function="internal">
        <lane id=":j_w_15_0" index="0" disallow="pedestrian" speed="8.00" length="4.07" shape="301.60,289.60 302.15,293.45 302.24,293.60"/>
    </edge>
    <edge id=":j_w_16" function="internal">
        <lane id=":j_w_16_0" index="0" disallow="pedestrian" speed="13.89" length="20.80" shape="301.60,289.60 301.60,310.40"/>
    </edge>
    <edge id=":j_w_17" function="internal">
        <lane id=":j_w_17_0" index="0" disallow="pedestrian" speed="9.02" length="2.96" shape="301.60,289.60 300.87,292.47"/>
    </edge>
    <edge id=":j_w_32" function="internal">
        <lane id=":j_w_32_0" index="0" disallow="pedestrian" speed="6.51" length="4.28" shape="306.40,293.92 307.95,294.85 310.40,295.20"/>
    </edge>
    <edge id=":j_w_33" function="internal">
        <lane id=":j_w_33_0" index="0" disallow="pedestrian" speed="10.10" length="17.79" shape="303.47,294.86 303.43,295.00 299.89,299.89 295.00,303.43 289.60,304.80"/>
    </edge>
    <edge id=":j_w_34" function="internal">
        <lane id=":j_w_34_0" index="0" disallow="pedestrian" speed="8.00" length="10.13" shape="302.24,293.60 303.80,296.20 306.55,297.85 310.40,298.40"/>
    </edge>
    <edge id=":j_w_35" function="internal">
        <lane id=":j_w_35_0" index="0" disallow="pedestrian" speed="9.02" length="15.37" shape="300.87,292.47 300.52,293.86 297.72,297.72 293.86,300.52 289.60,301.60"/>
    </edge>
    <edge id=":j_w_18" function="internal">
        <lane id=":j_w_18_0" index="0" disallow="pedestrian" speed="6.51" length="4.75" shape="289.60,295.20 292.05,294.85 293.80,293.80 293.92,293.60"/>
    </edge>
    <edge id=":j_w_19" function="internal">
        <lane id=":j_w_19_0" index="0" disallow="pedestrian" speed="13.89" length="20.80" shape="289.60,295.20 310.40,295.20"/>
    </edge>
    <edge id=":j_w_20" function="internal">
        <lane id=":j_w_20_0" index="0" disallow="pedestrian" speed="10.10" length="9.83" shape="289.60,295.20 295.00,296.57 298.45,299.07"/>
    </edge>
    <edge id=":j_w_21" function="internal">