<?xml version="1.0" encoding="UTF-8"?>
<connections>
    <!-- North inbound -> South/East/West outbound -->
    <connection from="N_in" to="S_out" fromLane="0" toLane="0"/>
    <connection from="N_in" to="S_out" fromLane="1" toLane="1"/>
    <connection from="N_in" to="E_out" fromLane="0" toLane="0"/>
    <connection from="N_in" to="E_out" fromLane="1" toLane="1"/>
    <connection from="N_in" to="W_out" fromLane="0" toLane="0"/>
    <connection from="N_in" to="W_out" fromLane="1" toLane="1"/>

    <!-- South inbound -> North/East/West outbound -->
    <connection from="S_in" to="N_out" fromLane="0" toLane="0"/>
    <connection from="S_in" to="N_out" fromLane="1" toLane="1"/>
    <connection from="S_in" to="E_out" fromLane="0" toLane="0"/>
    <connection from="S_in" to="E_out" fromLane="1" toLane="1"/>
    <connection from="S_in" to="W_out" fromLane="0" toLane="0"/>
    <connection from="S_in" to="W_out" fromLane="1" toLane="1"/>

    <!-- East inbound -> North/South/West outbound -->
    <connection from="E_in" to="N_out" fromLane="0" toLane="0"/>
    <connection from="E_in" to="N_out" fromLane="1" toLane="1"/>
    <connection from="E_in" to="S_out" fromLane="0" toLane="0"/>
    <connection from="E_in" to="S_out" fromLane="1" toLane="1"/>
    <connection from="E_in" to="W_out" fromLane="0" toLane="0"/>
    <connection from="E_in" to="W_out" fromLane="1" toLane="1"/>

    <!-- West inbound -> North/South/East outbound -->
    <connection from="W_in" to="N_out" fromLane="0" toLane="0"/>
    <connection from="W_in" to="N_out" fromLane="1" toLane="1"/>
    <connection from="W_in" to="S_out" fromLane="0" toLane="0"/>
    <connection from="W_in" to="S_out" fromLane="1" toLane="1"/>
    <connection from="W_in" to="E_out" fromLane="0" toLane="0"/>
    <connection from="W_in" to="E_out" fromLane="1" toLane="1"/>
</connections>
